Version 4
SHEET 1 964 836
WIRE 0 -48 -96 -48
WIRE 240 -48 80 -48
WIRE 96 0 64 0
WIRE 240 0 240 -48
WIRE 240 0 160 0
WIRE 64 128 64 0
WIRE 128 144 128 112
WIRE 128 144 112 144
WIRE 176 144 128 144
WIRE -384 160 -592 160
WIRE -256 160 -304 160
WIRE -224 160 -256 160
WIRE -96 160 -96 -48
WIRE -96 160 -144 160
WIRE -64 160 -96 160
WIRE -48 160 -64 160
WIRE 64 160 64 128
WIRE 64 160 32 160
WIRE 96 160 64 160
WIRE -592 176 -592 160
WIRE 240 176 240 0
WIRE 240 176 160 176
WIRE 448 176 240 176
WIRE 96 192 64 192
WIRE 128 208 112 208
WIRE 176 208 176 144
WIRE 176 208 144 208
WIRE -256 224 -256 160
WIRE 64 224 64 192
WIRE -96 240 -96 160
WIRE 128 240 128 208
WIRE -592 288 -592 256
WIRE -256 320 -256 288
WIRE -96 336 -96 304
WIRE 128 464 128 432
WIRE 128 576 128 544
WIRE 128 576 64 576
WIRE 64 592 64 576
WIRE 128 608 128 576
WIRE 128 752 128 688
FLAG 64 224 0
FLAG -592 288 0
FLAG 240 176 vout
FLAG -64 160 vx1
FLAG 64 128 vsj
FLAG 64 592 0
FLAG -96 336 0
FLAG -256 320 0
FLAG 128 112 vdd
FLAG 128 240 vss
FLAG 128 432 vdd
FLAG 128 752 vss
SYMBOL res 48 144 R90
WINDOW 0 0 56 VBottom 2
WINDOW 3 32 56 VTop 2
SYMATTR InstName R3
SYMATTR Value 1k
SYMBOL voltage -592 160 R0
WINDOW 123 24 152 Left 2
WINDOW 39 24 124 Left 2
SYMATTR Value2 AC 1
SYMATTR SpiceLine Rser=1
SYMATTR InstName V1
SYMATTR Value SINE(0 1 1e3)
SYMBOL voltage 128 448 R0
WINDOW 123 0 0 Left 0
WINDOW 39 24 124 Left 2
SYMATTR SpiceLine Rser=1
SYMATTR InstName V2
SYMATTR Value 5
SYMBOL voltage 128 592 R0
WINDOW 123 0 0 Left 0
WINDOW 39 24 124 Left 2
SYMATTR SpiceLine Rser=1
SYMATTR InstName V3
SYMATTR Value 5
SYMBOL res -128 144 R90
WINDOW 0 0 56 VBottom 2
WINDOW 3 32 56 VTop 2
SYMATTR InstName R2
SYMATTR Value 2k
SYMBOL res -288 144 R90
WINDOW 0 0 56 VBottom 2
WINDOW 3 32 56 VTop 2
SYMATTR InstName R1
SYMATTR Value 100
SYMBOL cap 160 -16 R90
WINDOW 0 0 32 VBottom 2
WINDOW 3 32 32 VTop 2
SYMATTR InstName C3
SYMATTR Value 100pf
SYMBOL cap -112 240 R0
SYMATTR InstName C2
SYMATTR Value 200nf
SYMBOL res 96 -64 R90
WINDOW 0 0 56 VBottom 2
WINDOW 3 32 56 VTop 2
SYMATTR InstName R4
SYMATTR Value 2k
SYMBOL cap -272 224 R0
SYMATTR InstName C1
SYMATTR Value 200nf
SYMBOL OpAmps\\ADA4807 128 176 R0
SYMATTR InstName U1
TEXT -328 -160 Left 2 !.ac oct 100 100 200e3
